Circuit: * C:\Users\Leonard\Desktop\CIL\TEMA MARE\Draft1.asc

Direct Newton iteration for .op point succeeded.

Date: Thu Jan 12 13:03:05 2023
Total elapsed time: 0.082 seconds.

tnom = 27
temp = 27
method = modified trap
totiter = 2104
traniter = 2082
tranpoints = 1042
accept = 1042
rejected = 0
matrix size = 12
fillins = 3
solver = Normal
Matrix Compiler1: 642 bytes object code size  0.2/0.1/[0.1]
Matrix Compiler2: 1.09 KB object code size  0.2/0.2/[0.1]

